PRIMVEC
5.075568 0.0 0.0 
0.0 5.075568 0.0 
0.0 0.0 5.075568 
PRIMCOORD
12 1
Hf   1.2796589807E-03  4.2000442623E-03 -1.5695663587E-03
Hf   4.6852839173E-01  5.0422428300E-01 -6.2729964447E-02
Hf   1.2440775292E-03  5.0422553637E-01  4.3723098426E-01
Hf   4.6850928809E-01  4.2126317063E-03  4.9846097619E-01
O    2.7568813196E-01  2.5124779239E-01  2.0452461236E-01
O    1.9416683019E-01  2.5129634865E-01  7.0451096891E-01
O    8.0760851118E-01  6.4224638454E-01  9.8338891267E-02
O    6.6229490484E-01  6.4227988047E-01  5.9845922666E-01
O    2.7570250504E-01  7.5120044977E-01  2.3120405413E-01
O    1.9421253258E-01  7.5123446140E-01  7.3118540290E-01
O    8.0770977371E-01  1.4194085773E-01  3.3740651667E-01
O    6.6205261416E-01  1.4189116972E-01  8.3753071746E-01
