PRIMVEC
5.075568 0.0 0.0 
0.0 5.075568 0.0 
0.0 0.0 5.075568 
PRIMCOORD
12 1
Hf    0 0 0
Hf    0.0  4.7957167444  4.795716744
Hf    4.7957167444  0.0  4.7957167444
Hf    4.7957167444  4.7957167444 0.0
O     2.9853871415  1.8103296030  7.7811038859
O     2.9853871415  6.6060463474  6.6060463474
O     1.8103296030  6.6060463474  1.8103296030
O     1.8103296030  1.8103296030  2.9853871415
O     6.6060463474  2.9853871415  2.9853871415
O     6.6060463474  7.7811038859  1.8103296030
O     7.7811038859  7.7811038859  6.6060463474
O     7.7811038859  2.9853871415  7.7811038859
