PRIMVEC
5.075568 0.0 0.0 
0.0 5.075568 0.0 
0.0 0.0 5.075568 
PRIMCOORD
12 1
Hf  0.0000000  0.0000000  0.0000000 -0.0000210  0.0074851 -0.0000000
Hf  0.0000000  2.5377840  2.5377840  0.0000210 -0.0074849 -0.0000000
Hf  2.5377840  0.0000000  2.5377840  0.0000210 -0.0074849 -0.0000000
Hf  2.5377840  2.5377840  0.0000000 -0.0000210  0.0074851 -0.0000000
O  1.2688920  1.2688920  3.8066760 -0.0000219 -0.0000007 -0.0000000
O  1.2688920  3.8066760  3.8066760  0.0000220 -0.0000008 -0.0000000
O  1.2688920  3.8066760  1.2688920  0.0000220 -0.0000008 -0.0000000
O  1.2688920  1.2688920  1.2688920 -0.0000219 -0.0000007 -0.0000000
O  3.8066760  1.2688920  1.2688920  0.0000220 -0.0000008 -0.0000000
O  3.8066760  3.8066760  1.2688920 -0.0000219 -0.0000007 -0.0000000
O  3.8066760  3.8066760  3.8066760 -0.0000219 -0.0000007 -0.0000000
O  3.8066760  1.2688920  3.8066760  0.0000220 -0.0000008 -0.0000000
