PRIMVEC
5.075568 0.0 0.0 
0.0 5.075568 0.0 
0.0 0.0 5.075568 
PRIMCOORD
12 1
Hf  0.0000000  0.0000000  0.0000000  0.0000000  0.0000000  0.0068917
Hf  0.0000000  2.5377840  2.5377840  0.0000000  0.0000000  0.0068997
Hf  2.5377840  0.0000000  2.5377840  0.0000000  0.0000000  0.0068997
Hf  2.5377840  2.5377840  0.0000000  0.0000000  0.0000000  0.0068917
O  1.2688920  1.2688920  3.8066760  0.0000000  0.0000000  0.0068754
O  1.2688920  3.8066760  3.8066760  0.0000000  0.0000000  0.0068754
O  1.2688920  3.8066760  1.2688920 -0.0000000  0.0000000  0.0068754
O  1.2688920  1.2688920  1.2688920 -0.0000000  0.0000000  0.0068754
O  3.8066760  1.2688920  1.2688920 -0.0000000  0.0000000  0.0068754
O  3.8066760  3.8066760  1.2688920 -0.0000000  0.0000000  0.0068754
O  3.8066760  3.8066760  3.8066760  0.0000000  0.0000000  0.0068754
O  3.8066760  1.2688920  3.8066760  0.0000000  0.0000000  0.0068754
