PRIMVEC
5.075568 0.0 0.0 
0.0 5.075568 0.0 
0.0 0.0 5.075568 
PRIMCOORD
12 1
Hf  0.0000000  0.0000000  0.0000000 -0.0000641 -0.0039258 -0.0000000
Hf  0.0000000  2.5377840  2.5377840 -0.0000641 -0.0039265  0.0000000
Hf  2.5377840  0.0000000  2.5377840 -0.0000641 -0.0039265  0.0000000
Hf  2.5377840  2.5377840  0.0000000 -0.0000641 -0.0039258 -0.0000000
O  1.2688920  1.2688920  3.8066760  0.0002427  0.0150478 -0.0000000
O  1.2688920  3.8066760  3.8066760  0.0002484  0.0150479 -0.0000000
O  1.2688920  3.8066760  1.2688920  0.0002484  0.0150479 -0.0000000
O  1.2688920  1.2688920  1.2688920  0.0002427  0.0150478 -0.0000000
O  3.8066760  1.2688920  1.2688920  0.0002484  0.0150479 -0.0000000
O  3.8066760  3.8066760  1.2688920  0.0002427  0.0150478 -0.0000000
O  3.8066760  3.8066760  3.8066760  0.0002427  0.0150478 -0.0000000
O  3.8066760  1.2688920  3.8066760  0.0002484  0.0150479 -0.0000000
