PRIMVEC
5.07311 0.0 0.0 
0.0 5.07311 0.0 
0.0 0.0 5.07311 
PRIMCOORD
12 1
Hf  0.0000000  0.0000000  0.0000000  0.0127639  0.0893645 -0.0000000
Hf  2.5365550  2.5365550  0.0000000  0.0127639  0.0893645 -0.0000000
Zr  0.0000000  2.5365550  2.5365550 -0.0149083 -0.1043780 -0.0000000
Zr  2.5365550  0.0000000  2.5365550 -0.0149083 -0.1043780 -0.0000000
O  1.2682775  1.2682775  1.2682775 -0.0018802 -0.0136528 -0.0000000
O  1.2682775  1.2682775  3.8048325 -0.0018802 -0.0136528 -0.0000000
O  1.2682775  3.8048325  1.2682775 -0.0019500 -0.0131638 -0.0000000
O  1.2682775  3.8048325  3.8048325 -0.0019500 -0.0131638 -0.0000000
O  3.8048325  1.2682775  1.2682775 -0.0019500 -0.0131638 -0.0000000
O  3.8048325  1.2682775  3.8048325 -0.0019500 -0.0131638 -0.0000000
O  3.8048325  3.8048325  1.2682775 -0.0018802 -0.0136528 -0.0000000
O  3.8048325  3.8048325  3.8048325 -0.0018802 -0.0136528 -0.0000000
