PRIMVEC
5.07311 0.0 0.0 
0.0 5.07311 0.0 
0.0 0.0 5.07311 
PRIMCOORD
12 1
Hf  0.0000000  0.0000000  0.0000000 -0.0028473 -0.0000000  0.0000000
Hf  2.5365550  2.5365550  0.0000000 -0.0028473 -0.0000000  0.0000000
Zr  0.0000000  2.5365550  2.5365550 -0.0079208  0.0000000  0.0000000
Zr  2.5365550  0.0000000  2.5365550 -0.0079208  0.0000000  0.0000000
O  1.2682775  1.2682775  1.2682775  0.0141530  0.0003972  0.0000000
O  1.2682775  1.2682775  3.8048325  0.0141530  0.0003972  0.0000000
O  1.2682775  3.8048325  1.2682775  0.0141530 -0.0003972  0.0000000
O  1.2682775  3.8048325  3.8048325  0.0141530 -0.0003972  0.0000000
O  3.8048325  1.2682775  1.2682775  0.0141530 -0.0003972  0.0000000
O  3.8048325  1.2682775  3.8048325  0.0141530 -0.0003972  0.0000000
O  3.8048325  3.8048325  1.2682775  0.0141530  0.0003972  0.0000000
O  3.8048325  3.8048325  3.8048325  0.0141530  0.0003972  0.0000000
