PRIMVEC
5.07311 0.0 0.0 
0.0 5.07311 0.0 
0.0 0.0 5.07311 
PRIMCOORD
12 1
Hf  0.0000000  0.0000000  0.0000000 -0.0000000  0.0000000  0.0711736
Hf  2.5365550  2.5365550  0.0000000 -0.0000000  0.0000000  0.0711736
Zr  0.0000000  2.5365550  2.5365550  0.0000000  0.0000000  0.0166131
Zr  2.5365550  0.0000000  2.5365550  0.0000000  0.0000000  0.0166131
O  1.2682775  1.2682775  1.2682775  0.0000000 -0.0000000 -0.0605358
O  1.2682775  1.2682775  3.8048325 -0.0000000 -0.0000000 -0.0605358
O  1.2682775  3.8048325  1.2682775  0.0000000 -0.0000000 -0.0605358
O  1.2682775  3.8048325  3.8048325  0.0000000 -0.0000000 -0.0605358
O  3.8048325  1.2682775  1.2682775  0.0000000 -0.0000000 -0.0605358
O  3.8048325  1.2682775  3.8048325  0.0000000 -0.0000000 -0.0605358
O  3.8048325  3.8048325  1.2682775  0.0000000 -0.0000000 -0.0605358
O  3.8048325  3.8048325  3.8048325 -0.0000000 -0.0000000 -0.0605358
