PRIMVEC
5.07311 0.0 0.0 
0.0 5.07311 0.0 
0.0 0.0 5.07311 
PRIMCOORD
12 1
Hf  0.0000000  0.0000000  0.0000000 -0.0200220  0.1022150  0.0000000
Hf  2.5365550  2.5365550  0.0000000 -0.0200220  0.1022150  0.0000000
Zr  0.0000000  2.5365550  2.5365550 -0.0141134  0.0720511  0.0000000
Zr  2.5365550  0.0000000  2.5365550 -0.0141134  0.0720511  0.0000000
O  1.2682775  1.2682775  1.2682775 -0.0058929  0.0300967  0.0000000
O  1.2682775  1.2682775  3.8048325 -0.0058929  0.0300967  0.0000000
O  1.2682775  3.8048325  1.2682775 -0.0058954  0.0300839  0.0000000
O  1.2682775  3.8048325  3.8048325 -0.0058954  0.0300839  0.0000000
O  3.8048325  1.2682775  1.2682775 -0.0058954  0.0300839  0.0000000
O  3.8048325  1.2682775  3.8048325 -0.0058954  0.0300839  0.0000000
O  3.8048325  3.8048325  1.2682775 -0.0058929  0.0300967  0.0000000
O  3.8048325  3.8048325  3.8048325 -0.0058929  0.0300967  0.0000000
