PRIMVEC
5.07311 0.0 0.0 
0.0 5.07311 0.0 
0.0 0.0 5.07311 
PRIMCOORD
12 1
Hf  0.0000000  0.0000000  0.0000000  0.0000000 -0.0000000 -0.5001688
Hf  2.5365550  2.5365550  0.0000000  0.0000000 -0.0000000 -0.5001688
Zr  0.0000000  2.5365550  2.5365550  0.0000000 -0.0000000 -0.3627995
Zr  2.5365550  0.0000000  2.5365550  0.0000000 -0.0000000 -0.3627995
O  1.2682775  1.2682775  1.2682775 -0.0000000 -0.0000000 -0.1719067
O  1.2682775  1.2682775  3.8048325  0.0000000 -0.0000000 -0.1719067
O  1.2682775  3.8048325  1.2682775 -0.0000000 -0.0000000 -0.1719067
O  1.2682775  3.8048325  3.8048325  0.0000000 -0.0000000 -0.1719067
O  3.8048325  1.2682775  1.2682775 -0.0000000 -0.0000000 -0.1719067
O  3.8048325  1.2682775  3.8048325  0.0000000 -0.0000000 -0.1719067
O  3.8048325  3.8048325  1.2682775 -0.0000000 -0.0000000 -0.1719067
O  3.8048325  3.8048325  3.8048325  0.0000000 -0.0000000 -0.1719067
