PRIMVEC
3.587 0.0 0.0 
0.0 3.587 0.0 
0.0 0.0 5.07311 
PRIMCOORD
6 1
Hf  0.0000000  0.0000000  0.0000000  0.0000000 -0.0000000  0.0000000
Zr  1.7935000  1.7935000  2.5365550  0.0000000  0.0000000  0.2166500
O  1.7935000  0.0000000  1.2682775  0.0974271  0.0000000  0.4291832
O  1.7935000  0.0000000  3.8048325 -0.0000000  0.5091045 -0.0000000
O  0.0000000  1.7935000  1.2682775  0.0000000  0.0191979  0.0152185
O  0.0000000  1.7935000  3.8048325  0.5109325 -0.0000000  0.4848360
