PRIMVEC
3.587 0.0 0.0 
0.0 3.587 0.0 
0.0 0.0 5.07311 
PRIMCOORD
6 1
Hf  0.0000000  0.0000000  0.0000000  0.0000000 -0.0000000  0.0000000
Zr  1.7935000  1.7935000  2.5365550  0.0000000  0.0000000  0.2165580
O  1.7935000  0.0000000  1.2682775  0.0938612  0.0000000  0.4509559
O  1.7935000  0.0000000  3.8048325 -0.0000000 -0.4906519  0.0000000
O  0.0000000  1.7935000  1.2682775  0.0000000  0.0201294 -0.0145143
O  0.0000000  1.7935000  3.8048325 -0.4872898  0.0000000  0.5083596
