PRIMVEC
3.587 0.0 0.0 
0.0 3.587 0.0 
0.0 0.0 5.07311 
PRIMCOORD
6 1
Hf  0.0000000  0.0000000  0.0000000 -0.5091045 -0.4292711 -0.2168784
Zr  1.7935000  1.7935000  2.5365550 -0.0974818 -0.0000000  0.0099508
O  1.7935000  0.0000000  1.2682775  0.0032668 -0.0000000 -0.0086851
O  1.7935000  0.0000000  3.8048325 -0.0000000 -0.0002009 -0.0000000
O  0.0000000  1.7935000  1.2682775 -0.0000000  0.4876430 -0.5114725
O  0.0000000  1.7935000  3.8048325  0.0279960 -0.0000000 -0.0556623
