PRIMVEC
3.587 0.0 0.0 
0.0 3.587 0.0 
0.0 0.0 5.07311 
PRIMCOORD
6 1
Hf  0.0000000  0.0000000  0.0000000  0.0026685  0.2239695 -0.7364748
Zr  1.7935000  1.7935000  2.5365550  0.6383067 -0.0000000  0.0337910
O  1.7935000  0.0000000  1.2682775 -0.0213907 -0.0000000  0.0045314
O  1.7935000  0.0000000  3.8048325  0.0000000  0.0000011 -0.0000000
O  0.0000000  1.7935000  1.2682775 -0.0000000 -0.0000000  0.0000000
O  0.0000000  1.7935000  3.8048325 -0.0000000 -0.0000000  0.0000000
