PRIMVEC
8.3843 0 0 
0 8.39258 0 
0 0 8.40346 
PRIMCOORD
40 1
Ba -0.00488192 8.38745 8.40518 
Ba 8.38387 8.38468 4.22389 
Ba -0.0264178 4.19525 8.38912 
Ba 8.40745 4.17593 4.21139 
Ba 4.17122 8.40686 -0.0266364 
Ba 4.22075 -0.00509915 4.19911 
Ba 4.19479 4.19817 -0.0391017 
Ba 4.19926 4.19534 4.18305 
Zr 2.09716 2.09511 2.09242 
Zr 2.09719 2.09508 6.29411 
Zr 2.09724 6.29139 2.0924 
Zr 2.09715 6.29141 6.29414 
Zr 6.28929 2.09506 2.09237 
Zr 6.28935 2.09518 6.29411 
Zr 6.28935 6.29139 2.09238 
Zr 6.28928 6.2914 6.29411 
O 2.01543 -0.00361056 2.057 
O 1.94633 8.38022 6.31486 
O 2.17902 4.1938 2.12771 
O 2.24805 4.20255 6.27328 
O 6.40524 8.41541 2.06548 
O 6.42729 -0.0122151 6.31854 
O 6.17342 4.16742 2.11939 
O 6.15132 4.20243 6.26971 
O 2.07542 2.11855 -0.0104906 
O 2.11887 2.07174 4.19521 
O 2.0337 6.24816 -0.0267573 
O 2.16067 6.33467 4.21151 
O 6.3465 2.12767 -0.0197681 
O 6.23204 2.0626 4.20455 
O 6.34925 6.24771 8.40816 
O 6.2294 6.33514 4.18006 
O 8.39461 2.17997 2.13569 
O 8.38218 2.24632 6.22911 
O -0.000724317 6.21172 2.12296 
O -0.0156122 6.11444 6.22506 
O 4.18396 2.01025 2.04904 
O 4.19644 1.94374 6.3592 
O 4.19515 6.37111 2.06182 
O 4.20991 6.46825 6.36324 
