PRIMVEC
3.587 0.0 0.0 
0.0 3.587 0.0 
0.0 0.0 5.07311 
PRIMCOORD
6 1
Hf  0.0000000  0.0000000  0.0000000  0.3194209  0.7843111 -0.0000000
Zr  1.7935000  1.7935000  2.5365550  0.4925222  0.2005861  0.0000000
O  1.7935000  0.0000000  1.2682775  0.0000000 -0.0000000  0.0009758
O  1.7935000  0.0000000  3.8048325  0.0000000 -0.0000000 -0.0009758
O  0.0000000  1.7935000  1.2682775  0.0000000 -0.0000000  0.0023959
O  0.0000000  1.7935000  3.8048325  0.0000000  0.0000000 -0.0023959
