PRIMVEC
2.5377837086240334 2.5377837086240334 0.0 
-2.5377837086240334 2.5377837086240334 0.0 
0.0 0.0 5.075568 
PRIMCOORD
6 1
Hf  0.0000000  0.0000000  0.0000000  0.0000000  0.0000000 -0.0105727
Hf  0.0000000  2.5377837  2.5377840 -0.0000000  0.0000000  0.0105979
O  1.2688919  1.2688919  1.2688920 -0.0000000 -0.0000000 -0.0001050
O  1.2688919  1.2688919  3.8066760  0.0000000  0.0000000 -0.0001050
O -1.2688919  1.2688919  1.2688920 -0.0000000 -0.0000000 -0.0001050
O -1.2688919  1.2688919  3.8066760  0.0000000  0.0000000 -0.0001050
