PRIMVEC
2.537777662032 2.537777662032 0.0 
-2.537777662032 2.537777662032 0.0 
0.0 0.0 5.075568 
PRIMCOORD
6 1
Hf  0.0000000  0.0000000  0.0000000  0.0000000  0.0000000  0.0000000
Hf  0.0000000  2.5377777  2.5377840 -0.0000000  0.0000000  0.0000000
O  1.2688888  1.2688888  1.2688920 -0.0176777 -0.0176777 -0.0000000
O  1.2688888  1.2688888  3.8066760 -0.0176777 -0.0176777 -0.0000000
O -1.2688888  1.2688888  1.2688920  0.0176777 -0.0176777 -0.0000000
O -1.2688888  1.2688888  3.8066760  0.0176777 -0.0176777 -0.0000000
