PRIMVEC
3.587 0.0 0.0 
0.0 3.587 0.0 
0.0 0.0 5.07311 
PRIMCOORD
6 1
Hf  0.0000000  0.0000000  0.0000000 -0.0182417 -0.2231011 -0.0000000
Zr  1.7935000  1.7935000  2.5365550 -0.0340404 -0.4163248 -0.0000000
O  1.7935000  0.0000000  1.2682775  0.0367498  0.4279181  0.0000000
O  1.7935000  0.0000000  3.8048325  0.0367498  0.4279181  0.0000000
O  0.0000000  1.7935000  1.2682775  0.0349884  0.4494612  0.0000000
O  0.0000000  1.7935000  3.8048325  0.0349884  0.4494612  0.0000000
