PRIMVEC
3.587 0.0 0.0 
0.0 3.587 0.0 
0.0 0.0 5.07311 
PRIMCOORD
6 1
Hf  0.0000000  0.0000000  0.0000000 -0.0036483 -0.0446202 -0.0000000
Zr  1.7935000  1.7935000  2.5365550 -0.0068081 -0.0832650 -0.0000000
O  1.7935000  0.0000000  1.2682775  0.0073500  0.0855836  0.0000000
O  1.7935000  0.0000000  3.8048325  0.0073500  0.0855836  0.0000000
O  0.0000000  1.7935000  1.2682775  0.0069977  0.0898922  0.0000000
O  0.0000000  1.7935000  3.8048325  0.0069977  0.0898922  0.0000000
