PRIMVEC
2.5363917329 2.5363917329 0.0 
-2.5363917329 2.5363917329 0.0 
0.0 0.0 5.07311 
PRIMCOORD
6 1
Hf  0.0000000  0.0000000  0.0000000  0.0000000  0.0000000 -0.0000000
Zr  0.0000000  2.5363917  2.5365550 -0.0000000  0.0000000 -0.0000000
O  1.2681959  1.2681959  1.2682775  0.0176777  0.0176777  0.0000000
O  1.2681959  1.2681959  3.8048325  0.0176777  0.0176777  0.0000000
O -1.2681959  1.2681959  1.2682775 -0.0176777  0.0176777 -0.0000000
O -1.2681959  1.2681959  3.8048325 -0.0176777  0.0176777 -0.0000000
