PRIMVEC
3.587 0.0 0.0 
0.0 3.587 0.0 
0.0 0.0 5.07311 
PRIMCOORD
6 1
Hf  0.0000000  0.0000000  0.0000000 -0.0000002 -0.0097153  0.0000000
Zr  1.7935000  1.7935000  2.5365550  0.0223481  0.0000004 -0.0000000
O  1.7935000  0.0000000  1.2682775  0.0000000  0.0000000 -0.0000113
O  1.7935000  0.0000000  3.8048325 -0.0000000 -0.0000000  0.0000113
O  0.0000000  1.7935000  1.2682775  0.0000000  0.0000000 -0.7068968
O  0.0000000  1.7935000  3.8048325 -0.0000000 -0.0000000  0.7068968
