PRIMVEC
3.587 0.0 0.0 
0.0 3.587 0.0 
0.0 0.0 5.07311 
PRIMCOORD
6 1
Hf  0.0000000  0.0000000  0.0000000 -0.0000015  0.0026775 -0.0000000
Zr  1.7935000  1.7935000  2.5365550 -0.0000066  0.0116838  0.0000000
O  1.7935000  0.0000000  1.2682775 -0.0002780 -0.5090416 -0.0000000
O  1.7935000  0.0000000  3.8048325 -0.0002780 -0.5090416  0.0000000
O  0.0000000  1.7935000  1.2682775  0.0002884  0.4907185  0.0000000
O  0.0000000  1.7935000  3.8048325  0.0002884  0.4907185 -0.0000000
