PRIMVEC
3.587 0.0 0.0 
0.0 3.587 0.0 
0.0 0.0 5.07311 
PRIMCOORD
6 1
Hf  0.0000000  0.0000000  0.0000000  0.0180509  0.1263805 -0.0000000
Zr  1.7935000  1.7935000  2.5365550 -0.0210835 -0.1476127 -0.0000000
O  1.7935000  0.0000000  1.2682775 -0.0026590 -0.0193080 -0.0000000
O  1.7935000  0.0000000  3.8048325 -0.0026590 -0.0193080 -0.0000000
O  0.0000000  1.7935000  1.2682775 -0.0027578 -0.0186164 -0.0000000
O  0.0000000  1.7935000  3.8048325 -0.0027578 -0.0186164 -0.0000000
