PRIMVEC
3.587 0.0 0.0 
0.0 3.587 0.0 
0.0 0.0 5.07311 
PRIMCOORD
6 1
Hf  0.0000000  0.0000000  0.0000000 -0.0074901  0.1060810  0.0000000
Zr  1.7935000  1.7935000  2.5365550 -0.1688943  0.0119252 -0.0000000
O  1.7935000  0.0000000  1.2682775  0.0000000  0.0000000  0.0002400
O  1.7935000  0.0000000  3.8048325  0.0000000  0.0000000 -0.0002400
O  0.0000000  1.7935000  1.2682775 -0.0000000 -0.0000000 -0.0033987
O  0.0000000  1.7935000  3.8048325 -0.0000000  0.0000000  0.0033987
