PRIMVEC
3.587 0.0 0.0 
0.0 3.587 0.0 
0.0 0.0 5.07311 
PRIMCOORD
6 1
Hf  0.0000000  0.0000000  0.0000000 -0.1415768  0.7227691  0.0000000
Zr  1.7935000  1.7935000  2.5365550 -0.0997971  0.5094782  0.0000000
O  1.7935000  0.0000000  1.2682775 -0.0416688  0.2128159  0.0000000
O  1.7935000  0.0000000  3.8048325 -0.0416688  0.2128159  0.0000000
O  0.0000000  1.7935000  1.2682775 -0.0416866  0.2127252  0.0000000
O  0.0000000  1.7935000  3.8048325 -0.0416866  0.2127252  0.0000000
