PRIMVEC
5.075568 0.0 0.0 
0.0 5.075568 0.0 
0.0 0.0 5.075568 
PRIMCOORD
12 1
Hf  0.0000000  0.0000000  0.0000000 -0.0001533  0.0015856  0.0065137
Hf  0.0000000  2.5377840  2.5377840 -0.0001533  0.0015856  0.0065137
Hf  2.5377840  0.0000000  2.5377840 -0.0001533  0.0015856  0.0065137
Hf  2.5377840  2.5377840  0.0000000 -0.0001533  0.0015856  0.0065137
O  1.2688920  1.2688920  3.8066760 -0.0001796  0.0018572  0.0076294
O  1.2688920  3.8066760  3.8066760 -0.0001796  0.0018572  0.0076294
O  1.2688920  3.8066760  1.2688920 -0.0001796  0.0018572  0.0076294
O  1.2688920  1.2688920  1.2688920 -0.0001796  0.0018572  0.0076294
O  3.8066760  1.2688920  1.2688920 -0.0001796  0.0018572  0.0076294
O  3.8066760  3.8066760  1.2688920 -0.0001796  0.0018572  0.0076294
O  3.8066760  3.8066760  3.8066760 -0.0001796  0.0018572  0.0076294
O  3.8066760  1.2688920  3.8066760 -0.0001796  0.0018572  0.0076294
