PRIMVEC
5.075568 0.0 0.0 
0.0 5.075568 0.0 
0.0 0.0 5.075568 
PRIMCOORD
12 1
Hf  0.0000000  0.0000000  0.0000000 -0.0067039 -0.0000363 -0.0001490
Hf  0.0000000  2.5377840  2.5377840 -0.0067039 -0.0000363 -0.0001490
Hf  2.5377840  0.0000000  2.5377840 -0.0067039 -0.0000363 -0.0001490
Hf  2.5377840  2.5377840  0.0000000 -0.0067039 -0.0000363 -0.0001490
O  1.2688920  1.2688920  3.8066760 -0.0078522 -0.0000425 -0.0001745
O  1.2688920  3.8066760  3.8066760 -0.0078522 -0.0000425 -0.0001745
O  1.2688920  3.8066760  1.2688920 -0.0078522 -0.0000425 -0.0001745
O  1.2688920  1.2688920  1.2688920 -0.0078522 -0.0000425 -0.0001745
O  3.8066760  1.2688920  1.2688920 -0.0078522 -0.0000425 -0.0001745
O  3.8066760  3.8066760  1.2688920 -0.0078522 -0.0000425 -0.0001745
O  3.8066760  3.8066760  3.8066760 -0.0078522 -0.0000425 -0.0001745
O  3.8066760  1.2688920  3.8066760 -0.0078522 -0.0000425 -0.0001745
